#======================================================================

# CRYSTAL DATA

#----------------------------------------------------------------------

data_VESTA_phase_1


_chemical_name_common                  'Energy = -1967.442240713'
_cell_length_a                         16.59535
_cell_length_b                         16.59535
_cell_length_c                         16.59535
_cell_angle_alpha                      90
_cell_angle_beta                       90
_cell_angle_gamma                      90
_space_group_name_H-M_alt              'P 1'
_space_group_IT_number                 1

loop_
_space_group_symop_operation_xyz
   'x, y, z'

loop_
   _atom_site_label
   _atom_site_occupancy
   _atom_site_fract_x
   _atom_site_fract_y
   _atom_site_fract_z
   _atom_site_adp_type
   _atom_site_B_iso_or_equiv
   _atom_site_type_symbol
   Y1         1.0     0.535078      0.454087      0.512785     Biso  1.000000 Y
   N1         1.0     0.433628      0.410404      0.609130     Biso  1.000000 N
   N2         1.0     0.547367      0.472087      0.654731     Biso  1.000000 N
   N3         1.0     0.464830      0.578200      0.486926     Biso  1.000000 N
   N4         1.0     0.577768      0.552605      0.415171     Biso  1.000000 N
   N5         1.0     0.608064      0.322553      0.361510     Biso  1.000000 N
   N6         1.0     0.482085      0.364160      0.407019     Biso  1.000000 N
   C1         1.0     0.528238      0.326267      0.356183     Biso  1.000000 C
   C2         1.0     0.479837      0.432491      0.669890     Biso  1.000000 C
   C3         1.0     0.517310      0.601365      0.431587     Biso  1.000000 C
   H1         1.0     0.510715      0.660033      0.400258     Biso  1.000000 H
   H2         1.0     0.501937      0.294189      0.304144     Biso  1.000000 H
   H3         1.0     0.463622      0.417016      0.732930     Biso  1.000000 H
   C4         1.0     0.796339      0.274329      0.190648     Biso  1.000000 C
   C5         1.0     0.709316      0.270023      0.161160     Biso  1.000000 C
   C6         1.0     0.652400      0.313936      0.218577     Biso  1.000000 C
   C7         1.0     0.659020      0.280504      0.304410     Biso  1.000000 C
   C8         1.0     0.746140      0.285257      0.333804     Biso  1.000000 C
   C9         1.0     0.803991      0.242492      0.276610     Biso  1.000000 C
   H4         1.0     0.816639      0.337879      0.188927     Biso  1.000000 H
   H5         1.0     0.836431      0.240357      0.149812     Biso  1.000000 H
   H6         1.0     0.704013      0.295705      0.100000     Biso  1.000000 H
   H7         1.0     0.690939      0.206033      0.156252     Biso  1.000000 H
   H8         1.0     0.589665      0.309072      0.196753     Biso  1.000000 H
   H9         1.0     0.667035      0.379031      0.220124     Biso  1.000000 H
   H10        1.0     0.641780      0.215838      0.302407     Biso  1.000000 H
   H11        1.0     0.750206      0.259628      0.395100     Biso  1.000000 H
   H12        1.0     0.762863      0.349679      0.338705     Biso  1.000000 H
   H13        1.0     0.791177      0.177047      0.277141     Biso  1.000000 H
   H14        1.0     0.866446      0.249410      0.298450     Biso  1.000000 H
   C10        1.0     0.242719      0.326601      0.306683     Biso  1.000000 C
   C11        1.0     0.278959      0.411195      0.307051     Biso  1.000000 C
   C12        1.0     0.370434      0.409516      0.316999     Biso  1.000000 C
   C13        1.0     0.395250      0.362056      0.392297     Biso  1.000000 C
   C14        1.0     0.359856      0.276710      0.390328     Biso  1.000000 C
   C15        1.0     0.268333      0.278612      0.380928     Biso  1.000000 C
   H15        1.0     0.262662      0.294327      0.251726     Biso  1.000000 H
   H16        1.0     0.176304      0.330094      0.303492     Biso  1.000000 H
   H17        1.0     0.262678      0.443764      0.251315     Biso  1.000000 H
   H18        1.0     0.252516      0.446050      0.357447     Biso  1.000000 H
   H19        1.0     0.394623      0.471385      0.321398     Biso  1.000000 H
   H20        1.0     0.398484      0.381619      0.263202     Biso  1.000000 H
   H21        1.0     0.367365      0.393087      0.444262     Biso  1.000000 H
   H22        1.0     0.377464      0.244293      0.445777     Biso  1.000000 H
   H23        1.0     0.386239      0.242705      0.339321     Biso  1.000000 H
   H24        1.0     0.241430      0.306352      0.435339     Biso  1.000000 H
   H25        1.0     0.244306      0.216595      0.377862     Biso  1.000000 H
   C16        1.0     0.192325      0.344928      0.687990     Biso  1.000000 C
   C17        1.0     0.260804      0.284455      0.698929     Biso  1.000000 C
   C18        1.0     0.342804      0.326342      0.698814     Biso  1.000000 C
   C19        1.0     0.355627      0.373308      0.620197     Biso  1.000000 C
   C20        1.0     0.287024      0.434768      0.609755     Biso  1.000000 C
   C21        1.0     0.203877      0.395282      0.611891     Biso  1.000000 C
   H26        1.0     0.190781      0.385741      0.740777     Biso  1.000000 H
   H27        1.0     0.133554      0.313657      0.686726     Biso  1.000000 H
   H28        1.0     0.252584      0.250226      0.755437     Biso  1.000000 H
   H29        1.0     0.259022      0.239611      0.649480     Biso  1.000000 H
   H30        1.0     0.391710      0.281892      0.707067     Biso  1.000000 H
   H31        1.0     0.345324      0.367903      0.750936     Biso  1.000000 H
   H32        1.0     0.348760      0.328531      0.571013     Biso  1.000000 H
   H33        1.0     0.295724      0.468222      0.552878     Biso  1.000000 H
   H34        1.0     0.292110      0.479920      0.658669     Biso  1.000000 H
   H35        1.0     0.196799      0.356084      0.558331     Biso  1.000000 H
   H36        1.0     0.156290      0.441664      0.607408     Biso  1.000000 H
   C22        1.0     0.709745      0.596985      0.814454     Biso  1.000000 C
   C23        1.0     0.743851      0.547292      0.744919     Biso  1.000000 C
   C24        1.0     0.679483      0.528312      0.682011     Biso  1.000000 C
   C25        1.0     0.605146      0.487401      0.718139     Biso  1.000000 C
   C26        1.0     0.571867      0.538820      0.787508     Biso  1.000000 C
   C27        1.0     0.636063      0.556028      0.851238     Biso  1.000000 C
   H37        1.0     0.692254      0.657308      0.791960     Biso  1.000000 H
   H38        1.0     0.756394      0.606976      0.860912     Biso  1.000000 H
   H39        1.0     0.794871      0.579186      0.716438     Biso  1.000000 H
   H40        1.0     0.768592      0.490221      0.769084     Biso  1.000000 H
   H41        1.0     0.704391      0.489409      0.634108     Biso  1.000000 H
   H42        1.0     0.659715      0.584715      0.652203     Biso  1.000000 H
   H43        1.0     0.625941      0.429425      0.744958     Biso  1.000000 H
   H44        1.0     0.519720      0.508529      0.815680     Biso  1.000000 H
   H45        1.0     0.549141      0.596104      0.761877     Biso  1.000000 H
   H46        1.0     0.654910      0.498608      0.879606     Biso  1.000000 H
   H47        1.0     0.610393      0.593390      0.900000     Biso  1.000000 H
   C28        1.0     0.780267      0.651710      0.283891     Biso  1.000000 C
   C29        1.0     0.790074      0.573724      0.331717     Biso  1.000000 C
   C30        1.0     0.722469      0.563224      0.393181     Biso  1.000000 C
   C31        1.0     0.638421      0.568325      0.354901     Biso  1.000000 C
   C32        1.0     0.629781      0.647274      0.307884     Biso  1.000000 C
   C33        1.0     0.696816      0.656618      0.245436     Biso  1.000000 C
   H48        1.0     0.827559      0.656619      0.237263     Biso  1.000000 H
   H49        1.0     0.788642      0.703805      0.324805     Biso  1.000000 H
   H50        1.0     0.789775      0.521916      0.289499     Biso  1.000000 H
   H51        1.0     0.849295      0.572500      0.362163     Biso  1.000000 H
   H52        1.0     0.726733      0.610733      0.439867     Biso  1.000000 H
   H53        1.0     0.727319      0.504887      0.424744     Biso  1.000000 H
   H54        1.0     0.632192      0.698753      0.350341     Biso  1.000000 H
   H55        1.0     0.570279      0.649862      0.278006     Biso  1.000000 H
   H56        1.0     0.689612      0.714244      0.212894     Biso  1.000000 H
   H57        1.0     0.690979      0.608315      0.199698     Biso  1.000000 H
   H58        1.0     0.635322      0.518948      0.309590     Biso  1.000000 H
   C34        1.0     0.301514      0.780079      0.515544     Biso  1.000000 C
   C35        1.0     0.269121      0.700791      0.481901     Biso  1.000000 C
   C36        1.0     0.337124      0.647934      0.449469     Biso  1.000000 C
   C37        1.0     0.401646      0.631719      0.513825     Biso  1.000000 C
   C38        1.0     0.433584      0.711601      0.547967     Biso  1.000000 C
   C39        1.0     0.365870      0.765189      0.579646     Biso  1.000000 C
   H59        1.0     0.251853      0.816749      0.540538     Biso  1.000000 H
   H60        1.0     0.328003      0.815538      0.465561     Biso  1.000000 H
   H61        1.0     0.237333      0.667755      0.530460     Biso  1.000000 H
   H62        1.0     0.223955      0.712272      0.434324     Biso  1.000000 H
   H63        1.0     0.365629      0.677853      0.397027     Biso  1.000000 H
   H64        1.0     0.313284      0.589793      0.427343     Biso  1.000000 H
   H65        1.0     0.466622      0.744207      0.499999     Biso  1.000000 H
   H66        1.0     0.477755      0.698428      0.596024     Biso  1.000000 H
   H67        1.0     0.390698      0.822953      0.601559     Biso  1.000000 H
   H68        1.0     0.337668      0.735651      0.632420     Biso  1.000000 H
   H69        1.0     0.370933      0.600299      0.563998     Biso  1.000000 H
   O1         1.0     0.645810      0.387499      0.503718     Biso  1.000000 O
   H70        1.0     0.633622      0.346669      0.414849     Biso  1.000000 H
   H71        1.0     0.698116      0.382921      0.528350     Biso  1.000000 H
