#======================================================================

# CRYSTAL DATA

#----------------------------------------------------------------------

data_VESTA_phase_1


_chemical_name_common                  'Energy = -1891.141792241'
_cell_length_a                         15.05798
_cell_length_b                         15.05798
_cell_length_c                         15.05798
_cell_angle_alpha                      90
_cell_angle_beta                       90
_cell_angle_gamma                      90
_space_group_name_H-M_alt              'P 1'
_space_group_IT_number                 1

loop_
_space_group_symop_operation_xyz
   'x, y, z'

loop_
   _atom_site_label
   _atom_site_occupancy
   _atom_site_fract_x
   _atom_site_fract_y
   _atom_site_fract_z
   _atom_site_adp_type
   _atom_site_B_iso_or_equiv
   _atom_site_type_symbol
   Y1         1.0     0.502420      0.445314      0.477244     Biso  1.000000 Y
   N1         1.0     0.431603      0.385448      0.605885     Biso  1.000000 N
   N2         1.0     0.567793      0.448482      0.621356     Biso  1.000000 N
   N3         1.0     0.432297      0.584877      0.464773     Biso  1.000000 N
   N4         1.0     0.567963      0.569590      0.400946     Biso  1.000000 N
   N5         1.0     0.566892      0.327590      0.393027     Biso  1.000000 N
   N6         1.0     0.417787      0.350607      0.382184     Biso  1.000000 N
   C1         1.0     0.488399      0.303286      0.361722     Biso  1.000000 C
   C2         1.0     0.498162      0.408775      0.657486     Biso  1.000000 C
   C3         1.0     0.498686      0.619983      0.418862     Biso  1.000000 C
   H1         1.0     0.495558      0.689873      0.396135     Biso  1.000000 H
   H2         1.0     0.483826      0.243063      0.319422     Biso  1.000000 H
   H3         1.0     0.497720      0.396035      0.730130     Biso  1.000000 H
   C4         1.0     0.840479      0.264379      0.340909     Biso  1.000000 C
   C5         1.0     0.778690      0.279550      0.261965     Biso  1.000000 C
   C6         1.0     0.694143      0.328003      0.289934     Biso  1.000000 C
   C7         1.0     0.645074      0.279903      0.365213     Biso  1.000000 C
   C8         1.0     0.707851      0.264133      0.443545     Biso  1.000000 C
   C9         1.0     0.792601      0.215815      0.415958     Biso  1.000000 C
   H4         1.0     0.864418      0.329397      0.365628     Biso  1.000000 H
   H5         1.0     0.900000      0.226894      0.319995     Biso  1.000000 H
   H6         1.0     0.813137      0.317237      0.209264     Biso  1.000000 H
   H7         1.0     0.760828      0.214539      0.232506     Biso  1.000000 H
   H8         1.0     0.648655      0.336125      0.232914     Biso  1.000000 H
   H9         1.0     0.710744      0.395758      0.313161     Biso  1.000000 H
   H10        1.0     0.625116      0.213617      0.339141     Biso  1.000000 H
   H11        1.0     0.672345      0.226830      0.495790     Biso  1.000000 H
   H12        1.0     0.725043      0.329414      0.472750     Biso  1.000000 H
   H13        1.0     0.775628      0.147811      0.393607     Biso  1.000000 H
   H14        1.0     0.837038      0.207931      0.473815     Biso  1.000000 H
   C10        1.0     0.170657      0.316878      0.239779     Biso  1.000000 C
   C11        1.0     0.179598      0.389763      0.309619     Biso  1.000000 C
   C12        1.0     0.276881      0.409140      0.330073     Biso  1.000000 C
   C13        1.0     0.328027      0.326004      0.358853     Biso  1.000000 C
   C14        1.0     0.318552      0.253185      0.288428     Biso  1.000000 C
   C15        1.0     0.221132      0.233575      0.267686     Biso  1.000000 C
   H15        1.0     0.197673      0.341235      0.175865     Biso  1.000000 H
   H16        1.0     0.100000      0.301071      0.227858     Biso  1.000000 H
   H17        1.0     0.145840      0.450996      0.287387     Biso  1.000000 H
   H18        1.0     0.145503      0.368533      0.371274     Biso  1.000000 H
   H19        1.0     0.282901      0.460089      0.382552     Biso  1.000000 H
   H20        1.0     0.310075      0.436833      0.270591     Biso  1.000000 H
   H21        1.0     0.294595      0.300734      0.419762     Biso  1.000000 H
   H22        1.0     0.351281      0.191406      0.310705     Biso  1.000000 H
   H23        1.0     0.353051      0.274615      0.227059     Biso  1.000000 H
   H24        1.0     0.189144      0.204984      0.327409     Biso  1.000000 H
   H25        1.0     0.216750      0.182205      0.215475     Biso  1.000000 H
   C16        1.0     0.187662      0.312000      0.740111     Biso  1.000000 C
   C17        1.0     0.270110      0.254806      0.754697     Biso  1.000000 C
   C18        1.0     0.355122      0.305242      0.731760     Biso  1.000000 C
   C19        1.0     0.353015      0.339647      0.636062     Biso  1.000000 C
   C20        1.0     0.270239      0.397494      0.621954     Biso  1.000000 C
   C21        1.0     0.184712      0.348489      0.645565     Biso  1.000000 C
   H26        1.0     0.188578      0.368144      0.787632     Biso  1.000000 H
   H27        1.0     0.126955      0.273445      0.754657     Biso  1.000000 H
   H28        1.0     0.272935      0.231286      0.824135     Biso  1.000000 H
   H29        1.0     0.265642      0.194668      0.712642     Biso  1.000000 H
   H30        1.0     0.413612      0.261993      0.741653     Biso  1.000000 H
   H31        1.0     0.362372      0.361815      0.778205     Biso  1.000000 H
   H32        1.0     0.344740      0.280506      0.592759     Biso  1.000000 H
   H33        1.0     0.268557      0.420180      0.552193     Biso  1.000000 H
   H34        1.0     0.277070      0.457849      0.663423     Biso  1.000000 H
   H35        1.0     0.175097      0.292807      0.598445     Biso  1.000000 H
   H36        1.0     0.126925      0.392877      0.636996     Biso  1.000000 H
   C22        1.0     0.807797      0.577798      0.706454     Biso  1.000000 C
   C23        1.0     0.805202      0.476446      0.705006     Biso  1.000000 C
   C24        1.0     0.728671      0.442026      0.648110     Biso  1.000000 C
   C25        1.0     0.638791      0.479694      0.677390     Biso  1.000000 C
   C26        1.0     0.642354      0.581487      0.679669     Biso  1.000000 C
   C27        1.0     0.718850      0.616157      0.736487     Biso  1.000000 C
   H37        1.0     0.823152      0.602487      0.638876     Biso  1.000000 H
   H38        1.0     0.861903      0.601398      0.750047     Biso  1.000000 H
   H39        1.0     0.868898      0.449498      0.680497     Biso  1.000000 H
   H40        1.0     0.797406      0.451554      0.773802     Biso  1.000000 H
   H41        1.0     0.725770      0.368756      0.649690     Biso  1.000000 H
   H42        1.0     0.739673      0.461070      0.577947     Biso  1.000000 H
   H43        1.0     0.626864      0.456621      0.746646     Biso  1.000000 H
   H44        1.0     0.578067      0.607197      0.703974     Biso  1.000000 H
   H45        1.0     0.649526      0.605554      0.610538     Biso  1.000000 H
   H46        1.0     0.707234      0.597714      0.806756     Biso  1.000000 H
   H47        1.0     0.720545      0.689492      0.734504     Biso  1.000000 H
   C28        1.0     0.806236      0.699851      0.304774     Biso  1.000000 C
   C29        1.0     0.811100      0.605931      0.342580     Biso  1.000000 C
   C30        1.0     0.729582      0.584595      0.398854     Biso  1.000000 C
   C31        1.0     0.642536      0.598056      0.347659     Biso  1.000000 C
   C32        1.0     0.638448      0.693011      0.311389     Biso  1.000000 C
   C33        1.0     0.719578      0.714357      0.254222     Biso  1.000000 C
   H48        1.0     0.863729      0.713019      0.261140     Biso  1.000000 H
   H49        1.0     0.810437      0.748331      0.359944     Biso  1.000000 H
   H50        1.0     0.815483      0.557667      0.287217     Biso  1.000000 H
   H51        1.0     0.872181      0.597354      0.382312     Biso  1.000000 H
   H52        1.0     0.728175      0.627605      0.458470     Biso  1.000000 H
   H53        1.0     0.732502      0.515422      0.423174     Biso  1.000000 H
   H54        1.0     0.635347      0.740511      0.367503     Biso  1.000000 H
   H55        1.0     0.577281      0.702615      0.271964     Biso  1.000000 H
   H56        1.0     0.715425      0.783457      0.229919     Biso  1.000000 H
   H57        1.0     0.718928      0.671391      0.194580     Biso  1.000000 H
   H58        1.0     0.645766      0.553365      0.289036     Biso  1.000000 H
   C34        1.0     0.247049      0.800807      0.510440     Biso  1.000000 C
   C35        1.0     0.223905      0.729826      0.441773     Biso  1.000000 C
   C36        1.0     0.306328      0.679051      0.411483     Biso  1.000000 C
   C37        1.0     0.356296      0.637823      0.490282     Biso  1.000000 C
   C38        1.0     0.379174      0.709571      0.559068     Biso  1.000000 C
   C39        1.0     0.296987      0.760823      0.589158     Biso  1.000000 C
   H59        1.0     0.186290      0.834957      0.533383     Biso  1.000000 H
   H60        1.0     0.289088      0.852189      0.478746     Biso  1.000000 H
   H61        1.0     0.175965      0.682451      0.471266     Biso  1.000000 H
   H62        1.0     0.190148      0.760065      0.384061     Biso  1.000000 H
   H63        1.0     0.350982      0.725131      0.375560     Biso  1.000000 H
   H64        1.0     0.288351      0.626089      0.364018     Biso  1.000000 H
   H65        1.0     0.427704      0.756330      0.529494     Biso  1.000000 H
   H66        1.0     0.412713      0.678028      0.616205     Biso  1.000000 H
   H67        1.0     0.315861      0.813290      0.636859     Biso  1.000000 H
   H68        1.0     0.252136      0.715159      0.625410     Biso  1.000000 H
   H69        1.0     0.309400      0.591600      0.523008     Biso  1.000000 H
