#======================================================================

# CRYSTAL DATA

#----------------------------------------------------------------------

data_VESTA_phase_1


_chemical_name_common                  'Energy = -1268.363001169'
_cell_length_a                         13.24527
_cell_length_b                         13.24527
_cell_length_c                         13.24527
_cell_angle_alpha                      90
_cell_angle_beta                       90
_cell_angle_gamma                      90
_space_group_name_H-M_alt              'P 1'
_space_group_IT_number                 1

loop_
_space_group_symop_operation_xyz
   'x, y, z'

loop_
   _atom_site_label
   _atom_site_occupancy
   _atom_site_fract_x
   _atom_site_fract_y
   _atom_site_fract_z
   _atom_site_adp_type
   _atom_site_B_iso_or_equiv
   _atom_site_type_symbol
   Y1         1.0     0.525256      0.552584      0.490338     Biso  1.000000 Y
   N1         1.0     0.411570      0.467173      0.604341     Biso  1.000000 N
   N2         1.0     0.537454      0.564678      0.669191     Biso  1.000000 N
   N3         1.0     0.421082      0.701009      0.460768     Biso  1.000000 N
   N4         1.0     0.585940      0.704527      0.413660     Biso  1.000000 N
   N5         1.0     0.579321      0.347140      0.316960     Biso  1.000000 N
   N6         1.0     0.447157      0.458738      0.349232     Biso  1.000000 N
   C1         1.0     0.486781      0.382476      0.301618     Biso  1.000000 C
   C2         1.0     0.462568      0.500352      0.683074     Biso  1.000000 C
   C3         1.0     0.497735      0.750437      0.421139     Biso  1.000000 C
   C4         1.0     0.345669      0.487547      0.318724     Biso  1.000000 C
   C5         1.0     0.344656      0.569331      0.237979     Biso  1.000000 C
   H1         1.0     0.266405      0.590652      0.218461     Biso  1.000000 H
   H2         1.0     0.382559      0.543056      0.168488     Biso  1.000000 H
   H3         1.0     0.384276      0.637321      0.265232     Biso  1.000000 H
   C6         1.0     0.623830      0.261039      0.263856     Biso  1.000000 C
   C7         1.0     0.728600      0.245455      0.309853     Biso  1.000000 C
   C8         1.0     0.634125      0.284168      0.150839     Biso  1.000000 C
   C9         1.0     0.560206      0.165592      0.279631     Biso  1.000000 C
   H4         1.0     0.767446      0.181680      0.273030     Biso  1.000000 H
   H5         1.0     0.722847      0.229140      0.391370     Biso  1.000000 H
   H6         1.0     0.596210      0.100000      0.242924     Biso  1.000000 H
   H7         1.0     0.483916      0.173794      0.247049     Biso  1.000000 H
   H8         1.0     0.551967      0.149118      0.360885     Biso  1.000000 H
   H9         1.0     0.559657      0.296327      0.115350     Biso  1.000000 H
   H10        1.0     0.671070      0.220961      0.110963     Biso  1.000000 H
   H11        1.0     0.679720      0.352937      0.139309     Biso  1.000000 H
   C10        1.0     0.597357      0.602038      0.753646     Biso  1.000000 C
   C11        1.0     0.531209      0.662397      0.827312     Biso  1.000000 C
   C12        1.0     0.677925      0.672101      0.709541     Biso  1.000000 C
   C13        1.0     0.649752      0.515110      0.809769     Biso  1.000000 C
   H12        1.0     0.492839      0.724499      0.787117     Biso  1.000000 H
   H13        1.0     0.576880      0.694993      0.889037     Biso  1.000000 H
   H14        1.0     0.696634      0.470768      0.756985     Biso  1.000000 H
   H15        1.0     0.594364      0.463286      0.844404     Biso  1.000000 H
   H16        1.0     0.698874      0.543901      0.870739     Biso  1.000000 H
   H17        1.0     0.727320      0.630213      0.656991     Biso  1.000000 H
   H18        1.0     0.725566      0.704956      0.769564     Biso  1.000000 H
   H19        1.0     0.642339      0.734310      0.666930     Biso  1.000000 H
   C14        1.0     0.671539      0.747476      0.359563     Biso  1.000000 C
   C15        1.0     0.665916      0.715331      0.248199     Biso  1.000000 C
   C16        1.0     0.767404      0.703329      0.406905     Biso  1.000000 C
   C17        1.0     0.676529      0.863056      0.365992     Biso  1.000000 C
   H20        1.0     0.664040      0.632171      0.242327     Biso  1.000000 H
   H21        1.0     0.731432      0.743443      0.204786     Biso  1.000000 H
   H22        1.0     0.596464      0.745021      0.212791     Biso  1.000000 H
   H23        1.0     0.747595      0.890564      0.332206     Biso  1.000000 H
   H24        1.0     0.674074      0.888310      0.445435     Biso  1.000000 H
   H25        1.0     0.614109      0.900000      0.324931     Biso  1.000000 H
   H26        1.0     0.763158      0.620125      0.406638     Biso  1.000000 H
   H27        1.0     0.774965      0.728537      0.486029     Biso  1.000000 H
   H28        1.0     0.835545      0.727127      0.365093     Biso  1.000000 H
   C18        1.0     0.327039      0.751954      0.478364     Biso  1.000000 C
   C19        1.0     0.304945      0.767106      0.590325     Biso  1.000000 C
   H29        1.0     0.304871      0.693779      0.629951     Biso  1.000000 H
   H30        1.0     0.230706      0.803470      0.601784     Biso  1.000000 H
   H31        1.0     0.363417      0.814914      0.625648     Biso  1.000000 H
   C20        1.0     0.329254      0.398012      0.618903     Biso  1.000000 C
   C21        1.0     0.225916      0.448588      0.612772     Biso  1.000000 C
   H32        1.0     0.164455      0.392825      0.621526     Biso  1.000000 H
   H33        1.0     0.216019      0.486900      0.539406     Biso  1.000000 H
   H34        1.0     0.217579      0.506142      0.672526     Biso  1.000000 H
   H35        1.0     0.264575      0.707548      0.444647     Biso  1.000000 H
   H36        1.0     0.336009      0.359209      0.693027     Biso  1.000000 H
   H37        1.0     0.333519      0.338001      0.560896     Biso  1.000000 H
   H38        1.0     0.304881      0.515057      0.386054     Biso  1.000000 H
   H39        1.0     0.303219      0.420680      0.291359     Biso  1.000000 H
   H40        1.0     0.775463      0.313699      0.300285     Biso  1.000000 H
   H41        1.0     0.472589      0.614298      0.862033     Biso  1.000000 H
   H42        1.0     0.441463      0.342545      0.243947     Biso  1.000000 H
   H43        1.0     0.486784      0.829528      0.395010     Biso  1.000000 H
   H44        1.0     0.442520      0.472520      0.759879     Biso  1.000000 H
   H45        1.0     0.326045      0.826447      0.439632     Biso  1.000000 H
   O1         1.0     0.655785      0.459897      0.464653     Biso  1.000000 O
   H46        1.0     0.621727      0.385152      0.373089     Biso  1.000000 H
   H47        1.0     0.721509      0.450259      0.494225     Biso  1.000000 H
