#======================================================================

# CRYSTAL DATA

#----------------------------------------------------------------------

data_VESTA_phase_1


_chemical_name_common                  'Energy = -1192.056087565'
_cell_length_a                         11.97145
_cell_length_b                         11.97145
_cell_length_c                         11.97145
_cell_angle_alpha                      90
_cell_angle_beta                       90
_cell_angle_gamma                      90
_space_group_name_H-M_alt              'P 1'
_space_group_IT_number                 1

loop_
_space_group_symop_operation_xyz
   'x, y, z'

loop_
   _atom_site_label
   _atom_site_occupancy
   _atom_site_fract_x
   _atom_site_fract_y
   _atom_site_fract_z
   _atom_site_adp_type
   _atom_site_B_iso_or_equiv
   _atom_site_type_symbol
   Y1         1.0     0.524230      0.511738      0.467317     Biso  1.000000 Y
   N1         1.0     0.425797      0.419239      0.613868     Biso  1.000000 N
   N2         1.0     0.595844      0.495212      0.652141     Biso  1.000000 N
   N3         1.0     0.427203      0.685603      0.467547     Biso  1.000000 N
   N4         1.0     0.599488      0.678385      0.386946     Biso  1.000000 N
   N5         1.0     0.599168      0.359828      0.362752     Biso  1.000000 N
   N6         1.0     0.425069      0.423000      0.319380     Biso  1.000000 N
   C1         1.0     0.506515      0.350878      0.303142     Biso  1.000000 C
   C2         1.0     0.505771      0.440893      0.686187     Biso  1.000000 C
   C3         1.0     0.508036      0.735230      0.411721     Biso  1.000000 C
   C4         1.0     0.323489      0.415950      0.255844     Biso  1.000000 C
   C5         1.0     0.301874      0.520929      0.187196     Biso  1.000000 C
   H1         1.0     0.221365      0.515478      0.142412     Biso  1.000000 H
   H2         1.0     0.368895      0.533760      0.125143     Biso  1.000000 H
   H3         1.0     0.299725      0.595154      0.241926     Biso  1.000000 H
   C6         1.0     0.689578      0.278769      0.350863     Biso  1.000000 C
   C7         1.0     0.781789      0.313091      0.432394     Biso  1.000000 C
   C8         1.0     0.736772      0.279479      0.231590     Biso  1.000000 C
   C9         1.0     0.649489      0.160664      0.380999     Biso  1.000000 C
   H4         1.0     0.852932      0.254476      0.428886     Biso  1.000000 H
   H5         1.0     0.749396      0.314490      0.518764     Biso  1.000000 H
   H6         1.0     0.718915      0.100000      0.376843     Biso  1.000000 H
   H7         1.0     0.583644      0.131565      0.323302     Biso  1.000000 H
   H8         1.0     0.614874      0.159524      0.466480     Biso  1.000000 H
   H9         1.0     0.673334      0.253414      0.169917     Biso  1.000000 H
   H10        1.0     0.808393      0.221799      0.223931     Biso  1.000000 H
   H11        1.0     0.765292      0.364199      0.208947     Biso  1.000000 H
   C10        1.0     0.683395      0.527300      0.730819     Biso  1.000000 C
   C11        1.0     0.637923      0.610202      0.817522     Biso  1.000000 C
   C12        1.0     0.775677      0.584286      0.663267     Biso  1.000000 C
   C13        1.0     0.732569      0.424765      0.790208     Biso  1.000000 C
   H12        1.0     0.602388      0.684175      0.775416     Biso  1.000000 H
   H13        1.0     0.704518      0.638364      0.874857     Biso  1.000000 H
   H14        1.0     0.764778      0.364371      0.728401     Biso  1.000000 H
   H15        1.0     0.669445      0.381675      0.841854     Biso  1.000000 H
   H16        1.0     0.801956      0.449045      0.845937     Biso  1.000000 H
   H17        1.0     0.810361      0.526195      0.600547     Biso  1.000000 H
   H18        1.0     0.844544      0.612131      0.717932     Biso  1.000000 H
   H19        1.0     0.742253      0.657790      0.618634     Biso  1.000000 H
   C14        1.0     0.687942      0.728738      0.319556     Biso  1.000000 C
   C15        1.0     0.644670      0.757821      0.202321     Biso  1.000000 C
   C16        1.0     0.781324      0.642180      0.309098     Biso  1.000000 C
   C17        1.0     0.735034      0.833919      0.375933     Biso  1.000000 C
   H20        1.0     0.610105      0.682670      0.161508     Biso  1.000000 H
   H21        1.0     0.712244      0.791445      0.149213     Biso  1.000000 H
   H22        1.0     0.577799      0.821308      0.205952     Biso  1.000000 H
   H23        1.0     0.805236      0.868835      0.327290     Biso  1.000000 H
   H24        1.0     0.765606      0.813848      0.460604     Biso  1.000000 H
   H25        1.0     0.671140      0.900000      0.383676     Biso  1.000000 H
   H26        1.0     0.749475      0.565096      0.269743     Biso  1.000000 H
   H27        1.0     0.814294      0.620159      0.392386     Biso  1.000000 H
   H28        1.0     0.851070      0.674438      0.258066     Biso  1.000000 H
   C18        1.0     0.329096      0.747018      0.499535     Biso  1.000000 C
   C19        1.0     0.323721      0.769114      0.624839     Biso  1.000000 C
   H29        1.0     0.327026      0.689743      0.671651     Biso  1.000000 H
   H30        1.0     0.245788      0.813035      0.647588     Biso  1.000000 H
   H31        1.0     0.395131      0.820798      0.652030     Biso  1.000000 H
   C20        1.0     0.328700      0.356793      0.646683     Biso  1.000000 C
   C21        1.0     0.220497      0.420741      0.626779     Biso  1.000000 C
   H32        1.0     0.147068      0.369421      0.648905     Biso  1.000000 H
   H33        1.0     0.213006      0.444686      0.537983     Biso  1.000000 H
   H34        1.0     0.218201      0.498002      0.677050     Biso  1.000000 H
   H35        1.0     0.253850      0.699510      0.474355     Biso  1.000000 H
   H36        1.0     0.334366      0.332811      0.736191     Biso  1.000000 H
   H37        1.0     0.325306      0.277534      0.598988     Biso  1.000000 H
   H38        1.0     0.251970      0.402693      0.313150     Biso  1.000000 H
   H39        1.0     0.325489      0.342029      0.199717     Biso  1.000000 H
   H40        1.0     0.813025      0.397497      0.412248     Biso  1.000000 H
   H41        1.0     0.571258      0.572010      0.868623     Biso  1.000000 H
   H42        1.0     0.495585      0.283277      0.240224     Biso  1.000000 H
   H43        1.0     0.497469      0.823863      0.385600     Biso  1.000000 H
   H44        1.0     0.496317      0.413169      0.774440     Biso  1.000000 H
   H45        1.0     0.325170      0.827763      0.453921     Biso  1.000000 H
