#======================================================================

# CRYSTAL DATA

#----------------------------------------------------------------------

data_VESTA_phase_1


_chemical_name_common                  'Energy = -1268.366011986'
_cell_length_a                         13.73867
_cell_length_b                         13.73867
_cell_length_c                         13.73867
_cell_angle_alpha                      90
_cell_angle_beta                       90
_cell_angle_gamma                      90
_space_group_name_H-M_alt              'P 1'
_space_group_IT_number                 1

loop_
_space_group_symop_operation_xyz
   'x, y, z'

loop_
   _atom_site_label
   _atom_site_occupancy
   _atom_site_fract_x
   _atom_site_fract_y
   _atom_site_fract_z
   _atom_site_adp_type
   _atom_site_B_iso_or_equiv
   _atom_site_type_symbol
   Y1         1.0     0.527124      0.546740      0.500294     Biso  1.000000 Y
   N1         1.0     0.431052      0.492594      0.638440     Biso  1.000000 N
   N2         1.0     0.552602      0.603216      0.662598     Biso  1.000000 N
   N3         1.0     0.440260      0.693889      0.450145     Biso  1.000000 N
   N4         1.0     0.601005      0.677734      0.416912     Biso  1.000000 N
   N5         1.0     0.594437      0.321935      0.379992     Biso  1.000000 N
   N6         1.0     0.467181      0.434929      0.366919     Biso  1.000000 N
   C1         1.0     0.512869      0.355923      0.341113     Biso  1.000000 C
   H1         1.0     0.482752      0.310877      0.281386     Biso  1.000000 H
   C2         1.0     0.486743      0.543409      0.697989     Biso  1.000000 C
   C3         1.0     0.521988      0.732661      0.418059     Biso  1.000000 C
   H2         1.0     0.524707      0.809175      0.393161     Biso  1.000000 H
   C4         1.0     0.381161      0.458574      0.308626     Biso  1.000000 C
   C5         1.0     0.292080      0.473546      0.373043     Biso  1.000000 C
   C6         1.0     0.400281      0.547093      0.244190     Biso  1.000000 C
   H3         1.0     0.303007      0.535381      0.423209     Biso  1.000000 H
   H4         1.0     0.276952      0.408024      0.416925     Biso  1.000000 H
   H5         1.0     0.227181      0.489431      0.328356     Biso  1.000000 H
   H6         1.0     0.463963      0.534611      0.196890     Biso  1.000000 H
   H7         1.0     0.414771      0.611838      0.289526     Biso  1.000000 H
   H8         1.0     0.336675      0.562497      0.197464     Biso  1.000000 H
   C7         1.0     0.644882      0.236302      0.344849     Biso  1.000000 C
   C8         1.0     0.738153      0.264910      0.291455     Biso  1.000000 C
   C9         1.0     0.664988      0.166426      0.428828     Biso  1.000000 C
   H9         1.0     0.721740      0.313584      0.229726     Biso  1.000000 H
   H10        1.0     0.776534      0.200154      0.263304     Biso  1.000000 H
   H11        1.0     0.787958      0.304026      0.340993     Biso  1.000000 H
   H12        1.0     0.596622      0.145178      0.465170     Biso  1.000000 H
   H13        1.0     0.712317      0.201296      0.483717     Biso  1.000000 H
   H14        1.0     0.701885      0.100000      0.402767     Biso  1.000000 H
   C10        1.0     0.616770      0.656174      0.726531     Biso  1.000000 C
   C11        1.0     0.612034      0.765028      0.704512     Biso  1.000000 C
   C12        1.0     0.721120      0.618380      0.718098     Biso  1.000000 C
   H15        1.0     0.633879      0.778528      0.628287     Biso  1.000000 H
   H16        1.0     0.660726      0.806968      0.752867     Biso  1.000000 H
   H17        1.0     0.537164      0.792511      0.713791     Biso  1.000000 H
   H18        1.0     0.724378      0.540080      0.735900     Biso  1.000000 H
   H19        1.0     0.748174      0.628161      0.642912     Biso  1.000000 H
   H20        1.0     0.770661      0.657664      0.767809     Biso  1.000000 H
   C13        1.0     0.694138      0.708651      0.378640     Biso  1.000000 C
   C14        1.0     0.702386      0.816593      0.353422     Biso  1.000000 C
   C15        1.0     0.721387      0.645262      0.291227     Biso  1.000000 C
   H21        1.0     0.653756      0.837021      0.292674     Biso  1.000000 H
   H22        1.0     0.777565      0.833453      0.330631     Biso  1.000000 H
   H23        1.0     0.684902      0.863372      0.416409     Biso  1.000000 H
   H24        1.0     0.717082      0.567561      0.311182     Biso  1.000000 H
   H25        1.0     0.670370      0.658232      0.230348     Biso  1.000000 H
   H26        1.0     0.796047      0.660951      0.265647     Biso  1.000000 H
   C16        1.0     0.351373      0.749218      0.462243     Biso  1.000000 C
   C17        1.0     0.351088      0.850832      0.417143     Biso  1.000000 C
   C18        1.0     0.323849      0.754117      0.569998     Biso  1.000000 C
   H27        1.0     0.403083      0.900000      0.453868     Biso  1.000000 H
   H28        1.0     0.278032      0.883435      0.424461     Biso  1.000000 H
   H29        1.0     0.369211      0.848939      0.338861     Biso  1.000000 H
   H30        1.0     0.322778      0.680534      0.602091     Biso  1.000000 H
   H31        1.0     0.377865      0.797642      0.610665     Biso  1.000000 H
   H32        1.0     0.251375      0.787553      0.580074     Biso  1.000000 H
   C19        1.0     0.361482      0.424843      0.678771     Biso  1.000000 C
   C20        1.0     0.257101      0.460935      0.665195     Biso  1.000000 C
   C21        1.0     0.375508      0.323874      0.634428     Biso  1.000000 C
   H33        1.0     0.240199      0.469546      0.587124     Biso  1.000000 H
   H34        1.0     0.247048      0.532384      0.700473     Biso  1.000000 H
   H35        1.0     0.203953      0.409541      0.696898     Biso  1.000000 H
   H36        1.0     0.450181      0.297391      0.647789     Biso  1.000000 H
   H37        1.0     0.364472      0.326570      0.554793     Biso  1.000000 H
   H38        1.0     0.323610      0.270747      0.665308     Biso  1.000000 H
   H39        1.0     0.478797      0.534666      0.778358     Biso  1.000000 H
   H40        1.0     0.374393      0.418324      0.758413     Biso  1.000000 H
   H41        1.0     0.365225      0.396075      0.259949     Biso  1.000000 H
   H42        1.0     0.292808      0.707693      0.425211     Biso  1.000000 H
   H43        1.0     0.592934      0.645166      0.803110     Biso  1.000000 H
   H44        1.0     0.595928      0.199708      0.292458     Biso  1.000000 H
   H45        1.0     0.749025      0.693952      0.435999     Biso  1.000000 H
   O1         1.0     0.652759      0.454116      0.504650     Biso  1.000000 O
   H46        1.0     0.628376      0.366516      0.433459     Biso  1.000000 H
   H47        1.0     0.711416      0.454333      0.543138     Biso  1.000000 H
