#======================================================================

# CRYSTAL DATA

#----------------------------------------------------------------------

data_VESTA_phase_1


_chemical_name_common                  'Energy = -1192.059104156'
_cell_length_a                         11.92862
_cell_length_b                         11.92862
_cell_length_c                         11.92862
_cell_angle_alpha                      90
_cell_angle_beta                       90
_cell_angle_gamma                      90
_space_group_name_H-M_alt              'P 1'
_space_group_IT_number                 1

loop_
_space_group_symop_operation_xyz
   'x, y, z'

loop_
   _atom_site_label
   _atom_site_occupancy
   _atom_site_fract_x
   _atom_site_fract_y
   _atom_site_fract_z
   _atom_site_adp_type
   _atom_site_B_iso_or_equiv
   _atom_site_type_symbol
   Y1         1.0     0.498212      0.490828      0.521744     Biso  1.000000 Y
   N1         1.0     0.413506      0.431140      0.693107     Biso  1.000000 N
   N2         1.0     0.586381      0.512283      0.700283     Biso  1.000000 N
   N3         1.0     0.411989      0.665315      0.479920     Biso  1.000000 N
   N4         1.0     0.590863      0.636150      0.421882     Biso  1.000000 N
   N5         1.0     0.583949      0.325495      0.447997     Biso  1.000000 N
   N6         1.0     0.412260      0.376504      0.382741     Biso  1.000000 N
   C1         1.0     0.498263      0.306639      0.380755     Biso  1.000000 C
   H1         1.0     0.496809      0.234026      0.322434     Biso  1.000000 H
   C2         1.0     0.500542      0.465643      0.751995     Biso  1.000000 C
   C3         1.0     0.502080      0.702177      0.426891     Biso  1.000000 C
   H2         1.0     0.502873      0.785988      0.387298     Biso  1.000000 H
   C4         1.0     0.322356      0.364657      0.302637     Biso  1.000000 C
   C5         1.0     0.209068      0.373526      0.361420     Biso  1.000000 C
   C6         1.0     0.332674      0.451879      0.209196     Biso  1.000000 C
   H3         1.0     0.139099      0.363314      0.301642     Biso  1.000000 H
   H4         1.0     0.200437      0.456462      0.401884     Biso  1.000000 H
   H5         1.0     0.413404      0.442894      0.164862     Biso  1.000000 H
   H6         1.0     0.329336      0.537298      0.244956     Biso  1.000000 H
   H7         1.0     0.264323      0.443299      0.147232     Biso  1.000000 H
   C7         1.0     0.678110      0.249692      0.460238     Biso  1.000000 C
   C8         1.0     0.674995      0.194389      0.575909     Biso  1.000000 C
   C9         1.0     0.690237      0.161742      0.367990     Biso  1.000000 C
   H8         1.0     0.669160      0.258730      0.642147     Biso  1.000000 H
   H9         1.0     0.750918      0.143501      0.591015     Biso  1.000000 H
   H10        1.0     0.600868      0.139287      0.583241     Biso  1.000000 H
   H11        1.0     0.692553      0.200432      0.283919     Biso  1.000000 H
   H12        1.0     0.621178      0.100000      0.369664     Biso  1.000000 H
   H13        1.0     0.769139      0.114887      0.379713     Biso  1.000000 H
   C10        1.0     0.677979      0.559784      0.763558     Biso  1.000000 C
   C11        1.0     0.674044      0.687838      0.759364     Biso  1.000000 C
   C12        1.0     0.789977      0.515689      0.720012     Biso  1.000000 C
   H14        1.0     0.679862      0.716927      0.671593     Biso  1.000000 H
   H15        1.0     0.743736      0.725416      0.807455     Biso  1.000000 H
   H16        1.0     0.594285      0.719202      0.794223     Biso  1.000000 H
   H17        1.0     0.793582      0.423443      0.726099     Biso  1.000000 H
   H18        1.0     0.801130      0.538872      0.630972     Biso  1.000000 H
   H19        1.0     0.860901      0.550886      0.768023     Biso  1.000000 H
   C13        1.0     0.692917      0.663920      0.362231     Biso  1.000000 C
   C14        1.0     0.697387      0.781537      0.311975     Biso  1.000000 C
   C15        1.0     0.715341      0.575293      0.272358     Biso  1.000000 C
   H20        1.0     0.633202      0.793154      0.246180     Biso  1.000000 H
   H21        1.0     0.780035      0.795475      0.272806     Biso  1.000000 H
   H22        1.0     0.685470      0.847190      0.376132     Biso  1.000000 H
   H23        1.0     0.712367      0.490476      0.309249     Biso  1.000000 H
   H24        1.0     0.650511      0.579530      0.206270     Biso  1.000000 H
   H25        1.0     0.798256      0.587463      0.232889     Biso  1.000000 H
   C16        1.0     0.311587      0.731766      0.496040     Biso  1.000000 C
   C17        1.0     0.302376      0.836499      0.422960     Biso  1.000000 C
   C18        1.0     0.298087      0.761576      0.620045     Biso  1.000000 C
   H26        1.0     0.366025      0.900000      0.445188     Biso  1.000000 H
   H27        1.0     0.219387      0.875612      0.434852     Biso  1.000000 H
   H28        1.0     0.311447      0.816417      0.333044     Biso  1.000000 H
   H29        1.0     0.302858      0.685359      0.672234     Biso  1.000000 H
   H30        1.0     0.365914      0.818673      0.646965     Biso  1.000000 H
   H31        1.0     0.216827      0.803077      0.636156     Biso  1.000000 H
   C19        1.0     0.323206      0.371133      0.747000     Biso  1.000000 C
   C20        1.0     0.210731      0.426758      0.721879     Biso  1.000000 C
   C21        1.0     0.322968      0.248117      0.711050     Biso  1.000000 C
   H32        1.0     0.194595      0.426943      0.630660     Biso  1.000000 H
   H33        1.0     0.210167      0.514510      0.751071     Biso  1.000000 H
   H34        1.0     0.141144      0.381874      0.763325     Biso  1.000000 H
   H35        1.0     0.403222      0.207562      0.732879     Biso  1.000000 H
   H36        1.0     0.312116      0.241688      0.619246     Biso  1.000000 H
   H37        1.0     0.254409      0.201129      0.751941     Biso  1.000000 H
   H38        1.0     0.501436      0.455342      0.844938     Biso  1.000000 H
   H39        1.0     0.336183      0.373644      0.839261     Biso  1.000000 H
   H40        1.0     0.327582      0.280297      0.263273     Biso  1.000000 H
   H41        1.0     0.239883      0.677176      0.473429     Biso  1.000000 H
   H42        1.0     0.669848      0.533985      0.852768     Biso  1.000000 H
   H43        1.0     0.754712      0.302185      0.457422     Biso  1.000000 H
   H44        1.0     0.762666      0.658410      0.423600     Biso  1.000000 H
   H45        1.0     0.201032      0.308840      0.427079     Biso  1.000000 H
