#======================================================================

# CRYSTAL DATA

#----------------------------------------------------------------------

data_VESTA_phase_1


_chemical_name_common                  'Energy = -1503.753577846'
_cell_length_a                         14.47349
_cell_length_b                         14.47349
_cell_length_c                         14.47349
_cell_angle_alpha                      90
_cell_angle_beta                       90
_cell_angle_gamma                      90
_space_group_name_H-M_alt              'P 1'
_space_group_IT_number                 1

loop_
_space_group_symop_operation_xyz
   'x, y, z'

loop_
   _atom_site_label
   _atom_site_occupancy
   _atom_site_fract_x
   _atom_site_fract_y
   _atom_site_fract_z
   _atom_site_adp_type
   _atom_site_B_iso_or_equiv
   _atom_site_type_symbol
   Y1         1.0     0.505557      0.555277      0.495686     Biso  1.000000 Y
   N1         1.0     0.419523      0.492661      0.626375     Biso  1.000000 N
   N2         1.0     0.527279      0.604962      0.651984     Biso  1.000000 N
   N3         1.0     0.428287      0.701614      0.460293     Biso  1.000000 N
   N4         1.0     0.557917      0.662849      0.380914     Biso  1.000000 N
   N5         1.0     0.583457      0.331960      0.421892     Biso  1.000000 N
   N6         1.0     0.460564      0.429557      0.382521     Biso  1.000000 N
   C1         1.0     0.509153      0.354355      0.372802     Biso  1.000000 C
   H1         1.0     0.489018      0.302960      0.320409     Biso  1.000000 H
   C2         1.0     0.470790      0.541343      0.684286     Biso  1.000000 C
   C3         1.0     0.494925      0.725287      0.402935     Biso  1.000000 C
   H2         1.0     0.498652      0.796368      0.374215     Biso  1.000000 H
   C4         1.0     0.384248      0.443281      0.315407     Biso  1.000000 C
   C5         1.0     0.321098      0.518776      0.353621     Biso  1.000000 C
   C6         1.0     0.325633      0.356033      0.300601     Biso  1.000000 C
   C7         1.0     0.424717      0.475446      0.222905     Biso  1.000000 C
   H3         1.0     0.289666      0.497087      0.419606     Biso  1.000000 H
   H4         1.0     0.264687      0.534022      0.304614     Biso  1.000000 H
   H5         1.0     0.358870      0.584086      0.365579     Biso  1.000000 H
   H6         1.0     0.470878      0.422284      0.193373     Biso  1.000000 H
   H7         1.0     0.465405      0.539163      0.232821     Biso  1.000000 H
   H8         1.0     0.369452      0.489464      0.172180     Biso  1.000000 H
   H9         1.0     0.264569      0.372994      0.258197     Biso  1.000000 H
   H10        1.0     0.362999      0.300695      0.263774     Biso  1.000000 H
   H11        1.0     0.301088      0.328231      0.367248     Biso  1.000000 H
   C8         1.0     0.639890      0.249626      0.404964     Biso  1.000000 C
   C9         1.0     0.713026      0.247663      0.481234     Biso  1.000000 C
   C10        1.0     0.687406      0.256151      0.310384     Biso  1.000000 C
   C11        1.0     0.580918      0.161895      0.410591     Biso  1.000000 C
   H12        1.0     0.755172      0.311195      0.479719     Biso  1.000000 H
   H13        1.0     0.759411      0.187895      0.472179     Biso  1.000000 H
   H14        1.0     0.680256      0.242589      0.549924     Biso  1.000000 H
   H15        1.0     0.527968      0.159413      0.355698     Biso  1.000000 H
   H16        1.0     0.545454      0.157901      0.477961     Biso  1.000000 H
   H17        1.0     0.624724      0.100000      0.402581     Biso  1.000000 H
   H18        1.0     0.732782      0.196003      0.298365     Biso  1.000000 H
   H19        1.0     0.636191      0.258271      0.253832     Biso  1.000000 H
   H20        1.0     0.729662      0.319496      0.306181     Biso  1.000000 H
   C12        1.0     0.586789      0.657771      0.713909     Biso  1.000000 C
   C13        1.0     0.529106      0.715138      0.782058     Biso  1.000000 C
   C14        1.0     0.644130      0.723116      0.653690     Biso  1.000000 C
   C15        1.0     0.652710      0.594285      0.767799     Biso  1.000000 C
   H21        1.0     0.481263      0.760801      0.744070     Biso  1.000000 H
   H22        1.0     0.573721      0.758440      0.826365     Biso  1.000000 H
   H23        1.0     0.487433      0.670506      0.827820     Biso  1.000000 H
   H24        1.0     0.694641      0.552460      0.719660     Biso  1.000000 H
   H25        1.0     0.614607      0.546300      0.813254     Biso  1.000000 H
   H26        1.0     0.700313      0.634833      0.811585     Biso  1.000000 H
   H27        1.0     0.686797      0.683379      0.604466     Biso  1.000000 H
   H28        1.0     0.598579      0.768923      0.613204     Biso  1.000000 H
   H29        1.0     0.690523      0.766360      0.696121     Biso  1.000000 H
   C16        1.0     0.635697      0.685753      0.320803     Biso  1.000000 C
   C17        1.0     0.603165      0.728543      0.229280     Biso  1.000000 C
   C18        1.0     0.686807      0.595512      0.300032     Biso  1.000000 C
   C19        1.0     0.702008      0.752661      0.369696     Biso  1.000000 C
   H30        1.0     0.553776      0.682092      0.194317     Biso  1.000000 H
   H31        1.0     0.662211      0.740204      0.182351     Biso  1.000000 H
   H32        1.0     0.568839      0.795864      0.239753     Biso  1.000000 H
   H33        1.0     0.726970      0.722083      0.434933     Biso  1.000000 H
   H34        1.0     0.667226      0.818499      0.386546     Biso  1.000000 H
   H35        1.0     0.762478      0.768705      0.325921     Biso  1.000000 H
   H36        1.0     0.707219      0.561100      0.364922     Biso  1.000000 H
   H37        1.0     0.641424      0.547469      0.261908     Biso  1.000000 H
   H38        1.0     0.749039      0.608404      0.257746     Biso  1.000000 H
   C20        1.0     0.357501      0.767982      0.488057     Biso  1.000000 C
   C21        1.0     0.400190      0.851515      0.537694     Biso  1.000000 C
   C22        1.0     0.292569      0.718113      0.554944     Biso  1.000000 C
   C23        1.0     0.301760      0.801245      0.404067     Biso  1.000000 C
   H39        1.0     0.439905      0.828358      0.598522     Biso  1.000000 H
   H40        1.0     0.346157      0.900000      0.561274     Biso  1.000000 H
   H41        1.0     0.447488      0.890183      0.491973     Biso  1.000000 H
   H42        1.0     0.270488      0.741909      0.367726     Biso  1.000000 H
   H43        1.0     0.345806      0.838748      0.354285     Biso  1.000000 H
   H44        1.0     0.245709      0.848492      0.425342     Biso  1.000000 H
   H45        1.0     0.259737      0.658351      0.520767     Biso  1.000000 H
   H46        1.0     0.331479      0.691999      0.615086     Biso  1.000000 H
   H47        1.0     0.237522      0.764804      0.579748     Biso  1.000000 H
   C24        1.0     0.362959      0.417034      0.662378     Biso  1.000000 C
   C25        1.0     0.299586      0.449096      0.741285     Biso  1.000000 C
   C26        1.0     0.424953      0.337568      0.695797     Biso  1.000000 C
   C27        1.0     0.302287      0.381908      0.583435     Biso  1.000000 C
   H48        1.0     0.338832      0.470627      0.803046     Biso  1.000000 H
   H49        1.0     0.252770      0.392803      0.762735     Biso  1.000000 H
   H50        1.0     0.257196      0.508289      0.718515     Biso  1.000000 H
   H51        1.0     0.345595      0.361542      0.524120     Biso  1.000000 H
   H52        1.0     0.254444      0.436662      0.560389     Biso  1.000000 H
   H53        1.0     0.260769      0.321717      0.605309     Biso  1.000000 H
   H54        1.0     0.383578      0.278381      0.720667     Biso  1.000000 H
   H55        1.0     0.469734      0.313613      0.638823     Biso  1.000000 H
   H56        1.0     0.470148      0.360228      0.752965     Biso  1.000000 H
   H57        1.0     0.467167      0.527668      0.759688     Biso  1.000000 H
   O1         1.0     0.634143      0.482886      0.511145     Biso  1.000000 O
   H58        1.0     0.611378      0.384919      0.464027     Biso  1.000000 H
   H59        1.0     0.679027      0.487684      0.560127     Biso  1.000000 H
