#======================================================================

# CRYSTAL DATA

#----------------------------------------------------------------------

data_VESTA_phase_1


_chemical_name_common                  'Energy = -1427.454205171'
_cell_length_a                         12.34498
_cell_length_b                         12.34498
_cell_length_c                         12.34498
_cell_angle_alpha                      90
_cell_angle_beta                       90
_cell_angle_gamma                      90
_space_group_name_H-M_alt              'P 1'
_space_group_IT_number                 1

loop_
_space_group_symop_operation_xyz
   'x, y, z'

loop_
   _atom_site_label
   _atom_site_occupancy
   _atom_site_fract_x
   _atom_site_fract_y
   _atom_site_fract_z
   _atom_site_adp_type
   _atom_site_B_iso_or_equiv
   _atom_site_type_symbol
   Y1         1.0     0.499287      0.506578      0.509187     Biso  1.000000 Y
   N1         1.0     0.417126      0.442103      0.672557     Biso  1.000000 N
   N2         1.0     0.579101      0.530124      0.684469     Biso  1.000000 N
   N3         1.0     0.417601      0.680299      0.482435     Biso  1.000000 N
   N4         1.0     0.580819      0.646591      0.402692     Biso  1.000000 N
   N5         1.0     0.581804      0.344372      0.441863     Biso  1.000000 N
   N6         1.0     0.419440      0.396609      0.370805     Biso  1.000000 N
   C1         1.0     0.500943      0.327273      0.373870     Biso  1.000000 C
   H1         1.0     0.501525      0.255443      0.319814     Biso  1.000000 H
   C2         1.0     0.497828      0.479441      0.732184     Biso  1.000000 C
   C3         1.0     0.499169      0.713193      0.421417     Biso  1.000000 C
   H2         1.0     0.499113      0.795935      0.386284     Biso  1.000000 H
   C4         1.0     0.333895      0.385079      0.289643     Biso  1.000000 C
   C5         1.0     0.249383      0.472672      0.312629     Biso  1.000000 C
   C6         1.0     0.278945      0.273627      0.296172     Biso  1.000000 C
   C7         1.0     0.380094      0.402375      0.175421     Biso  1.000000 C
   H3         1.0     0.213843      0.461292      0.393892     Biso  1.000000 H
   H4         1.0     0.183157      0.470174      0.252520     Biso  1.000000 H
   H5         1.0     0.287093      0.553685      0.310163     Biso  1.000000 H
   H6         1.0     0.440927      0.339938      0.155320     Biso  1.000000 H
   H7         1.0     0.419899      0.482280      0.169947     Biso  1.000000 H
   H8         1.0     0.315615      0.398589      0.113444     Biso  1.000000 H
   H9         1.0     0.211265      0.268257      0.237895     Biso  1.000000 H
   H10        1.0     0.335711      0.207165      0.277258     Biso  1.000000 H
   H11        1.0     0.246351      0.259671      0.378246     Biso  1.000000 H
   C8         1.0     0.668319      0.264297      0.453609     Biso  1.000000 C
   C9         1.0     0.753557      0.313046      0.529111     Biso  1.000000 C
   C10        1.0     0.721889      0.237772      0.344464     Biso  1.000000 C
   C11        1.0     0.623747      0.160036      0.504818     Biso  1.000000 C
   H12        1.0     0.788084      0.387392      0.493403     Biso  1.000000 H
   H13        1.0     0.820279      0.255318      0.543828     Biso  1.000000 H
   H14        1.0     0.716766      0.334747      0.607648     Biso  1.000000 H
   H15        1.0     0.561849      0.122231      0.452413     Biso  1.000000 H
   H16        1.0     0.585594      0.178232      0.583632     Biso  1.000000 H
   H17        1.0     0.688780      0.100000      0.518093     Biso  1.000000 H
   H18        1.0     0.790722      0.181785      0.355884     Biso  1.000000 H
   H19        1.0     0.664941      0.198515      0.287746     Biso  1.000000 H
   H20        1.0     0.752579      0.312323      0.305791     Biso  1.000000 H
   C12        1.0     0.664418      0.580868      0.749139     Biso  1.000000 C
   C13        1.0     0.617901      0.675408      0.815303     Biso  1.000000 C
   C14        1.0     0.749164      0.624782      0.670235     Biso  1.000000 C
   C15        1.0     0.719147      0.499258      0.825463     Biso  1.000000 C
   H21        1.0     0.578297      0.734505      0.761109     Biso  1.000000 H
   H22        1.0     0.682165      0.717646      0.861077     Biso  1.000000 H
   H23        1.0     0.556798      0.646854      0.874102     Biso  1.000000 H
   H24        1.0     0.751860      0.430181      0.779069     Biso  1.000000 H
   H25        1.0     0.662254      0.467168      0.886556     Biso  1.000000 H
   H26        1.0     0.786704      0.537774      0.869688     Biso  1.000000 H
   H27        1.0     0.784963      0.558152      0.622571     Biso  1.000000 H
   H28        1.0     0.711607      0.682421      0.613122     Biso  1.000000 H
   H29        1.0     0.815107      0.666681      0.713790     Biso  1.000000 H
   C16        1.0     0.667294      0.677220      0.327753     Biso  1.000000 C
   C17        1.0     0.622777      0.685709      0.211872     Biso  1.000000 C
   C18        1.0     0.752818      0.587714      0.331627     Biso  1.000000 C
   C19        1.0     0.720539      0.784886      0.360255     Biso  1.000000 C
   H30        1.0     0.584474      0.608558      0.187772     Biso  1.000000 H
   H31        1.0     0.687844      0.704488      0.153369     Biso  1.000000 H
   H32        1.0     0.560975      0.750146      0.205597     Biso  1.000000 H
   H33        1.0     0.751465      0.780372      0.444035     Biso  1.000000 H
   H34        1.0     0.663283      0.853434      0.355487     Biso  1.000000 H
   H35        1.0     0.789151      0.803792      0.306051     Biso  1.000000 H
   H36        1.0     0.787224      0.580913      0.413880     Biso  1.000000 H
   H37        1.0     0.716390      0.508871      0.310406     Biso  1.000000 H
   H38        1.0     0.819614      0.604571      0.274570     Biso  1.000000 H
   C20        1.0     0.331241      0.755481      0.512844     Biso  1.000000 C
   C21        1.0     0.376147      0.845069      0.586588     Biso  1.000000 C
   C22        1.0     0.246297      0.690579      0.575401     Biso  1.000000 C
   C23        1.0     0.277239      0.806468      0.413003     Biso  1.000000 C
   H39        1.0     0.415259      0.809155      0.658563     Biso  1.000000 H
   H40        1.0     0.311110      0.900000      0.614175     Biso  1.000000 H
   H41        1.0     0.437319      0.894459      0.543858     Biso  1.000000 H
   H42        1.0     0.245732      0.742819      0.358669     Biso  1.000000 H
   H43        1.0     0.334247      0.857080      0.366230     Biso  1.000000 H
   H44        1.0     0.208956      0.858890      0.437312     Biso  1.000000 H
   H45        1.0     0.211358      0.626660      0.523542     Biso  1.000000 H
   H46        1.0     0.283445      0.651102      0.646488     Biso  1.000000 H
   H47        1.0     0.179793      0.743378      0.603517     Biso  1.000000 H
   C24        1.0     0.331152      0.376923      0.721494     Biso  1.000000 C
   C25        1.0     0.277226      0.435552      0.817074     Biso  1.000000 C
   C26        1.0     0.376564      0.267555      0.759644     Biso  1.000000 C
   C27        1.0     0.245996      0.356902      0.633784     Biso  1.000000 C
   H48        1.0     0.334266      0.449107      0.884585     Biso  1.000000 H
   H49        1.0     0.209012      0.387410      0.849220     Biso  1.000000 H
   H50        1.0     0.245585      0.515035      0.791085     Biso  1.000000 H
   H51        1.0     0.283195      0.316821      0.563074     Biso  1.000000 H
   H52        1.0     0.210808      0.434315      0.606159     Biso  1.000000 H
   H53        1.0     0.179721      0.305209      0.664403     Biso  1.000000 H
   H54        1.0     0.311863      0.215314      0.792751     Biso  1.000000 H
   H55        1.0     0.415355      0.224712      0.691396     Biso  1.000000 H
   H56        1.0     0.438124      0.278771      0.823600     Biso  1.000000 H
   H57        1.0     0.497337      0.468326      0.821401     Biso  1.000000 H
